/*--------------------------------*- C++ -*----------------------------------*\
| =========                 |                                                 |
| \\      /  F ield         | OpenFOAM: The Open Source CFD Toolbox           |
|  \\    /   O peration     | Version:  2206                                  |
|   \\  /    A nd           | Website:  www.openfoam.com                      |
|    \\/     M anipulation  |                                                 |
\*---------------------------------------------------------------------------*/
FoamFile
{
    version     2.0;
    format      ascii;
    arch        "LSB;label=32;scalar=64";
    class       polyBoundaryMesh;
    location    "constant/polyMesh";
    object      boundary;
}
// * * * * * * * * * * * * * * * * * * * * * * * * * * * * * * * * * * * * * //

3
(
    upperPatch
    {
        type            patch;
        nFaces          17408;
        startFace       2240084;
    }
    wall
    {
        type            wall;
        inGroups        1(wall);
        nFaces          174112;
        startFace       2257492;
    }
    bottomPatch
    {
        type            patch;
        nFaces          21688;
        startFace       2431604;
    }
)

// ************************************************************************* //
